Version 4
SHEET 1 880 680
SYMBOL New_Symbol 80 176 R0
SYMATTR InstName X1
