Version 4
SHEET 1 1508 680
WIRE -528 -224 -736 -224
WIRE 432 -224 -352 -224
WIRE 896 -224 432 -224
WIRE 1040 -224 896 -224
WIRE 1040 -192 1040 -224
WIRE 576 -176 240 -176
WIRE 704 -176 576 -176
WIRE 896 -176 896 -224
WIRE -528 -144 -736 -144
WIRE -240 -144 -352 -144
WIRE 704 -112 704 -176
WIRE 1040 -112 896 -112
WIRE 576 -96 576 -176
WIRE 896 -96 896 -112
WIRE 432 0 432 -224
WIRE 240 16 240 -176
WIRE 400 16 240 16
WIRE 576 32 576 -32
WIRE 576 32 464 32
WIRE 704 32 704 -32
WIRE 704 32 576 32
WIRE 768 32 704 32
WIRE 896 32 848 32
WIRE 960 32 896 32
WIRE -336 48 -384 48
WIRE -320 48 -336 48
WIRE -240 48 -240 -144
WIRE -240 48 -272 48
WIRE -208 48 -240 48
WIRE -16 48 -128 48
WIRE 96 48 -16 48
WIRE 400 48 96 48
WIRE -384 144 -384 48
WIRE 96 144 96 48
WIRE 240 144 240 16
WIRE 896 144 896 32
WIRE -16 160 -16 48
WIRE -384 336 -384 224
WIRE -16 336 -16 224
WIRE -16 336 -384 336
WIRE 96 336 96 224
WIRE 96 336 -16 336
WIRE 240 336 240 224
WIRE 240 336 96 336
WIRE 432 336 432 64
WIRE 432 336 240 336
WIRE 896 336 896 208
WIRE 896 336 432 336
WIRE 960 336 896 336
WIRE 432 352 432 336
WIRE 960 352 960 336
FLAG 432 352 0
FLAG 960 352 0
FLAG 896 -96 0
FLAG 960 32 ADC
SYMBOL res 80 128 R0
SYMATTR InstName R1
SYMATTR Value 100k
SYMBOL res 224 128 R0
SYMATTR InstName R2
SYMATTR Value 1k
SYMBOL res 688 -128 R0
SYMATTR InstName R3
SYMATTR Value 100k
SYMBOL res -112 32 R90
WINDOW 0 0 56 VBottom 2
WINDOW 3 32 56 VTop 2
SYMATTR InstName R4
SYMATTR Value 10k
SYMBOL cap -32 160 R0
SYMATTR InstName C1
SYMATTR Value 100n
SYMBOL cap 880 144 R0
SYMATTR InstName C2
SYMATTR Value 100n
SYMBOL cap 560 -96 R0
SYMATTR InstName C4
SYMATTR Value 1µ
SYMBOL OpAmps\\LTC1050 432 -32 R0
SYMATTR InstName U1
SYMBOL res 864 16 R90
WINDOW 0 0 56 VBottom 2
WINDOW 3 32 56 VTop 2
SYMATTR InstName R5
SYMATTR Value 1k
SYMBOL cap 880 -176 R0
SYMATTR InstName C3
SYMATTR Value 100n
SYMBOL voltage 1040 -208 R0
WINDOW 123 0 0 Left 0
WINDOW 39 0 0 Left 0
SYMATTR InstName V1
SYMATTR Value 5
SYMBOL New_Symbol -448 -192 R0
SYMATTR InstName X1
SYMBOL voltage -736 -240 R0
WINDOW 123 0 0 Left 0
WINDOW 39 0 0 Left 0
SYMATTR InstName V2
SYMATTR Value PULSE(0 1 0.2 0.1 0.1 20)
SYMBOL cap -272 32 R90
WINDOW 0 0 32 VBottom 2
WINDOW 3 32 32 VTop 2
SYMATTR InstName C5
SYMATTR Value 1p
SYMBOL voltage -384 128 R0
WINDOW 123 0 0 Left 0
WINDOW 39 0 0 Left 0
SYMATTR InstName V3
SYMATTR Value SINE(0 325 50)
TEXT 1344 -48 Left 2 !.tran 4
TEXT 1312 -152 Left 2 !;ac dec 100 1 1G
TEXT -648 16 Left 2 !.param G0 10n
TEXT -648 48 Left 2 !.param G1 10n
TEXT -648 88 Left 2 !.param R1 100k
